Circuit: *** SPICE deck for cell 16BitC{lay} from library 16BitC

Vb15: Removing PWL point (2e-007,0.7)
Vb15: Removing PWL point (4e-007,0)
Va15: Removing PWL point (1.5e-007,0)
Va15: Removing PWL point (3e-007,0.7)
Vb14: Removing PWL point (2e-007,0.7)
Vb14: Removing PWL point (4e-007,0)
Va14: Removing PWL point (1.5e-007,0)
Va14: Removing PWL point (3e-007,0.7)
Vb13: Removing PWL point (2e-007,0.7)
Vb13: Removing PWL point (4e-007,0)
Va13: Removing PWL point (1.5e-007,0)
Va13: Removing PWL point (3e-007,0.7)
Vb12: Removing PWL point (2e-007,0.7)
Vb12: Removing PWL point (4e-007,0)
Va12: Removing PWL point (1.5e-007,0)
Va12: Removing PWL point (3e-007,0.7)
Vb11: Removing PWL point (2e-007,0.7)
Vb11: Removing PWL point (4e-007,0)
Va11: Removing PWL point (1.5e-007,0)
Va11: Removing PWL point (3e-007,0.7)
Vb10: Removing PWL point (2e-007,0.7)
Vb10: Removing PWL point (4e-007,0)
Va10: Removing PWL point (1.5e-007,0)
Va10: Removing PWL point (3e-007,0.7)
Vb9: Removing PWL point (2e-007,0.7)
Vb9: Removing PWL point (4e-007,0)
Va9: Removing PWL point (1.5e-007,0)
Va9: Removing PWL point (3e-007,0.7)
Vb8: Removing PWL point (2e-007,0.7)
Vb8: Removing PWL point (4e-007,0)
Va8: Removing PWL point (1.5e-007,0)
Va8: Removing PWL point (3e-007,0.7)
Vb7: Removing PWL point (2e-007,0.7)
Vb7: Removing PWL point (4e-007,0)
Va7: Removing PWL point (1.5e-007,0)
Va7: Removing PWL point (3e-007,0.7)
Vb6: Removing PWL point (2e-007,0.7)
Vb6: Removing PWL point (4e-007,0)
Va6: Removing PWL point (1.5e-007,0)
Va6: Removing PWL point (3e-007,0.7)
Vb5: Removing PWL point (2e-007,0.7)
Vb5: Removing PWL point (4e-007,0)
Va5: Removing PWL point (1.5e-007,0)
Va5: Removing PWL point (3e-007,0.7)
Vb4: Removing PWL point (2e-007,0.7)
Vb4: Removing PWL point (4e-007,0)
Va4: Removing PWL point (1.5e-007,0)
Va4: Removing PWL point (3e-007,0.7)
Vb3: Removing PWL point (2e-007,0.7)
Vb3: Removing PWL point (4e-007,0)
Va3: Removing PWL point (1.5e-007,0)
Va3: Removing PWL point (3e-007,0.7)
Vb2: Removing PWL point (2e-007,0.7)
Vb2: Removing PWL point (4e-007,0)
Va2: Removing PWL point (1.5e-007,0)
Va2: Removing PWL point (3e-007,0.7)
Vb1: Removing PWL point (2e-007,0.7)
Vb1: Removing PWL point (4e-007,0)
Va1: Removing PWL point (1.5e-007,0)
Va1: Removing PWL point (3e-007,0.7)
Vb0: Removing PWL point (2e-007,0.7)
Vb0: Removing PWL point (4e-007,0)
Va0: Removing PWL point (1.5e-007,0)
Va0: Removing PWL point (3e-007,0.7)
WARNING: Node NET@916 is floating.
WARNING: Node NET@2450 is floating.
WARNING: Node NET@3647 is floating.
WARNING: Node NET@4995 is floating.
WARNING: Node NET@5623 is floating.
WARNING: Node OUT is floating.

WARNING: Less than two connections to node OUT.  This node is used by CLOAD.
Direct Newton iteration failed to find .op point.  (Use ".option noopiter" to skip.)
Starting Gmin stepping
Gmin = 10
Gmin = 1.07374
Gmin = 0.115292
Gmin = 0.0123794
Gmin = 0.00132923
Gmin = 0.000142725
Gmin = 1.5325e-005
Gmin = 1.6455e-006
Gmin = 1.76685e-007
Gmin = 1.89714e-008
Gmin = 2.03704e-009
Gmin = 2.18725e-010
Gmin = 2.34854e-011
Gmin = 2.52173e-012
Gmin = 2.70769e-013
Gmin = 0
Gmin stepping succeeded in finding the operating point.


avg_power: AVG(i(vdd))=-1.85565e-006 FROM 0 TO 1e-006
peak_power: MAX(i(vdd))=8.3477e-007 FROM 0 TO 1e-006
prop_delay=-6.65251e-008 FROM 1.47143e-007 TO 8.06177e-008
vaeqb=9.1343e-011 FROM 1.25536e-007 TO 1.25627e-007
vaeqbt=1.39989e-010 FROM 8.0612e-008 TO 8.0752e-008
vagb=1.43194e-010 FROM 8.02672e-008 TO 8.04103e-008
vagbt=1.16269e-010 FROM 8.085e-008 TO 8.09663e-008
vltb=1.38939e-010 FROM 8.0827e-008 TO 8.09659e-008
vltbt=1.34046e-010 FROM 8.01521e-008 TO 8.02861e-008


Date: Thu Aug 22 14:23:12 2024
Total elapsed time: 5.117 seconds.

tnom = 27
temp = 27
method = modified trap
totiter = 3481
traniter = 2988
tranpoints = 1170
accept = 1138
rejected = 32
matrix size = 2237
fillins = 516
solver = Normal
Thread vector: 981.2/179.2[16] 183.4/18.6[16] 95.4/20.2[16] 9.4/15.6[1]  2592/500
Matrix Compiler1: 379 KB object code size  95.8/43.5/[18.3]
Matrix Compiler2: 294 KB object code size  46.7/41.4/[22.2]


