Circuit: *** SPICE deck for cell 1C{lay} from library 1bitComparator

Va: Removing PWL point (3e-007,0.7)
WARNING: Node OUT is floating.

WARNING: Less than two connections to node OUT.  This node is used by CLOAD.
Direct Newton iteration for .op point succeeded.


Measurement "avg_power" FAIL'ed

Measurement "peak_power" FAIL'ed
prop_delay=-4.14831e-008 FROM 1.92857e-007 TO 1.51374e-007
vaeqb=8.28333e-008 FROM 4.202e-008 TO 1.24853e-007
vaeqbt=-9.69795e-008 FROM 1.47937e-007 TO 5.09578e-008
vagtb=6.00909e-009 FROM 2.45415e-007 TO 2.51424e-007
vagtbt=4.92401e-009 FROM 1.51374e-007 TO 1.56298e-007


Date: Thu Aug 22 14:19:27 2024
Total elapsed time: 0.203 seconds.

tnom = 27
temp = 27
method = modified trap
totiter = 2453
traniter = 2434
tranpoints = 1055
accept = 1055
rejected = 0
matrix size = 80
fillins = 2
solver = Normal
Matrix Compiler1: 10.3 KB object code size  1.6/0.5/[0.4]
Matrix Compiler2: 9.83 KB object code size  0.8/0.7/[0.4]


