Circuit: *** SPICE deck for cell 4bitC{lay} from library 4bitC

WARNING: Node NET@1908 is floating.
WARNING: Node OUT is floating.

WARNING: Less than two connections to node OUT.  This node is used by CLOAD.
Direct Newton iteration failed to find .op point.  (Use ".option noopiter" to skip.)
Starting Gmin stepping
Gmin = 10
Gmin = 1.07374
Gmin = 0.115292
Gmin = 0.0123794
Gmin = 0.00132923
Gmin = 0.000142725
Gmin = 1.5325e-005
Gmin = 1.6455e-006
Gmin = 1.76685e-007
Gmin = 1.89714e-008
Gmin = 2.03704e-009
Gmin = 2.18725e-010
Gmin = 2.34854e-011
Gmin = 2.52173e-012
Gmin = 2.70769e-013
Gmin = 0
Gmin stepping succeeded in finding the operating point.


avg_power: AVG(i(vdd))=-1.23286e-006 FROM 0 TO 1e-006
peak_power: MAX(i(vdd))=-6.28778e-008 FROM 0 TO 1e-006
prop_delay=-2.75134e-007 FROM 3.88571e-007 TO 1.13438e-007
veqb=8.96304e-010 FROM 2.95286e-007 TO 2.96182e-007
veqbt=4.24083e-010 FROM 1.14383e-007 TO 1.14807e-007
vgtb=2.6314e-010 FROM 1.13357e-007 TO 1.13621e-007
vgb=3.43796e-010 FROM 7.06594e-007 TO 7.06938e-007


Date: Thu Aug 22 14:20:58 2024
Total elapsed time: 0.698 seconds.

tnom = 27
temp = 27
method = modified trap
totiter = 3481
traniter = 3015
tranpoints = 1101
accept = 1082
rejected = 19
matrix size = 507
fillins = 86
solver = Normal
Thread vector: 217.1/52.5[10] 32.6/5.7[10] 21.1/4.2[10] 2.0/3.6[1]  2592/500
Matrix Compiler1: 82.2 KB object code size  14.7/6.2/[4.1]
Matrix Compiler2: 66.0 KB object code size  8.3/6.3/[2.5]


