Circuit: *** SPICE deck for cell BitC{lay} from library 1bitComparator

Vb: Removing PWL point (1e-007,0)
Vb: Removing PWL point (5e-007,0.7)
WARNING: Node OUT is floating.

WARNING: Less than two connections to node OUT.  This node is used by CLOAD.
Direct Newton iteration failed to find .op point.  (Use ".option noopiter" to skip.)
Starting Gmin stepping
Gmin = 10
Gmin = 1.07374
Gmin = 0.115292
Gmin = 0.0123794
Gmin = 0.00132923
Gmin = 0.000142725
Gmin = 1.5325e-005
Gmin = 1.6455e-006
Gmin = 1.76685e-007
Gmin = 1.89714e-008
Gmin = 2.03704e-009
Gmin = 2.18725e-010
Gmin = 2.34854e-011
Gmin = 2.52173e-012
Gmin = 2.70769e-013
Gmin = 0
Gmin stepping succeeded in finding the operating point.



Measurement "prop_delay" FAIL'ed
vaeqb=2.82688e-009 FROM 1.78749e-007 TO 1.81576e-007
vaeqbt=2.52674e-009 FROM 3.80942e-007 TO 3.83469e-007
vagtb=1.93089e-009 FROM 3.82442e-007 TO 3.84373e-007
vagtbt=2.47972e-009 FROM 1.8459e-007 TO 1.8707e-007


Date: Thu Aug 22 13:20:22 2024
Total elapsed time: 0.209 seconds.

tnom = 27
temp = 27
method = modified trap
totiter = 2659
traniter = 2233
tranpoints = 1064
accept = 1063
rejected = 1
matrix size = 79
fillins = 2
solver = Normal
Matrix Compiler1: 10.5 KB object code size  1.3/0.5/[0.3]
Matrix Compiler2: 9.76 KB object code size  1.2/0.8/[0.5]


