Circuit: *** SPICE deck for cell DownLatch1{lay} from library DownLatch-

Vclk: Removing PWL point (5e-008,0)
Vd: Removing PWL point (2e-008,0.7)
WARNING: Node NET@3 is floating.
WARNING: Node NET@59 is floating.
WARNING: Node OUT is floating.

WARNING: Less than two connections to node D.  This node is used by VD.
WARNING: Less than two connections to node CLK.  This node is used by VCLK.
WARNING: Less than two connections to node OUT.  This node is used by CLOAD.
Direct Newton iteration failed to find .op point.  (Use ".option noopiter" to skip.)
Starting Gmin stepping
Gmin = 10
Gmin = 1.07374
Gmin = 0.115292
Gmin = 0.0123794
Gmin = 0.00132923
Gmin = 0.000142725
Gmin = 1.5325e-005
Gmin = 1.6455e-006
Gmin = 1.76685e-007
Gmin = 1.89714e-008
Gmin = 2.03704e-009
Gmin = 2.18725e-010
Gmin = 2.34854e-011
Gmin = 2.52173e-012
Gmin = 2.70769e-013
Gmin = 0
Gmin stepping succeeded in finding the operating point.



Measurement "tf" FAIL'ed

Measurement "tr" FAIL'ed


Date: Thu Aug 22 13:57:32 2024
Total elapsed time: 0.167 seconds.

tnom = 27
temp = 27
method = modified trap
totiter = 2479
traniter = 2120
tranpoints = 1061
accept = 1061
rejected = 0
matrix size = 55
fillins = 2
solver = Normal
Matrix Compiler1: 11.3 KB object code size  1.3/0.5/[0.4]
Matrix Compiler2: 7.00 KB object code size  0.6/0.5/[0.4]


