Circuit: *** SPICE deck for cell FF{sch} from library FlipFlop

Vd: Removing PWL point (2e-008,0.7)
Direct Newton iteration for .op point succeeded.

tf=6.6641e-010 FROM 1.3862e-007 TO 1.39286e-007
tr=7.72817e-010 FROM 3.09773e-008 TO 3.17501e-008


Date: Thu Aug 22 13:07:53 2024
Total elapsed time: 0.167 seconds.

tnom = 27
temp = 27
method = modified trap
totiter = 2396
traniter = 2363
tranpoints = 1080
accept = 1080
rejected = 0
matrix size = 94
fillins = 4
solver = Normal
Thread vector: 41.2/27.8[2] 6.6/3.2[2] 3.1/1.9[2] 0.4/1.2[1]  2592/500
Matrix Compiler1: 13.5 KB object code size  1.8/0.7/[0.5]
Matrix Compiler2: 12.0 KB object code size  0.9/0.9/[0.5]


