Circuit: *** SPICE deck for cell Latch{lay} from library Latch

Vclk: Removing PWL point (5e-008,0)
Vd: Removing PWL point (2e-008,0.7)
Direct Newton iteration for .op point succeeded.

tf=3.08042e-010 FROM 6.62737e-008 TO 6.65818e-008
tr=1.54116e-010 FROM 1.58941e-008 TO 1.60482e-008


Date: Thu Aug 22 14:01:09 2024
Total elapsed time: 0.156 seconds.

tnom = 27
temp = 27
method = modified trap
totiter = 2276
traniter = 2238
tranpoints = 1065
accept = 1063
rejected = 2
matrix size = 50
fillins = 0
solver = Normal
Matrix Compiler1: 6.40 KB object code size  0.9/0.3/[0.2]
Matrix Compiler2: 6.17 KB object code size  0.4/0.4/[0.4]


